           2
   29.5003493247067        300.000000000000     
 Si  1.195828190438077E-003 -4.721676589742116E-004 -0.456858169955580     
 Si -1.195828190438076E-003  4.721676589742116E-004  0.456858169955580     
           2
   29.5003493247067        300.000000000000     
 Si  1.195828190438077E-003 -4.721676589742116E-004 -0.456858169955580     
 Si -1.195828190438076E-003  4.721676589742116E-004  0.456858169955580     
